Version 4
SHEET 1 880 680
WIRE 128 -64 -128 -64
WIRE 720 -64 128 -64
WIRE -128 -16 -128 -64
WIRE 128 -16 128 -64
WIRE 128 80 128 64
WIRE 288 80 128 80
WIRE 544 80 352 80
WIRE 720 96 720 -64
WIRE 128 112 128 80
WIRE 544 144 544 80
WIRE -272 192 -352 192
WIRE -128 192 -128 64
WIRE -128 192 -208 192
WIRE 80 192 -128 192
WIRE 128 240 128 208
WIRE 288 240 128 240
WIRE 416 240 352 240
WIRE -352 256 -352 192
WIRE -128 256 -128 192
WIRE 128 256 128 240
WIRE 416 272 416 240
WIRE -352 384 -352 336
WIRE -128 384 -128 336
WIRE -128 384 -352 384
WIRE 128 384 128 336
WIRE 128 384 -128 384
WIRE 416 384 416 352
WIRE 416 384 128 384
WIRE 544 384 544 224
WIRE 544 384 416 384
WIRE 720 384 720 176
WIRE 720 384 544 384
WIRE -128 432 -128 384
FLAG -128 432 0
FLAG -352 192 IN
FLAG 128 -64 VDD
FLAG 544 80 OUT
SYMBOL voltage 720 80 R0
WINDOW 123 0 0 Left 2
WINDOW 39 0 0 Left 2
SYMATTR InstName VDD
SYMATTR Value 25
SYMBOL res -144 -32 R0
SYMATTR InstName RG1
SYMATTR Value 450000
SYMBOL res 112 -32 R0
WINDOW 0 38 40 Left 2
SYMATTR InstName RD
SYMATTR Value 68000
SYMBOL res -144 240 R0
SYMATTR InstName RG2
SYMATTR Value 330000
SYMBOL res 112 240 R0
SYMATTR InstName RS1
SYMATTR Value 68000
SYMBOL nmos 80 112 R0
SYMATTR InstName M1
SYMATTR Value BS170
SYMBOL cap 352 64 R90
WINDOW 0 0 32 VBottom 2
WINDOW 3 32 32 VTop 2
SYMATTR InstName C2
SYMATTR Value .0001
SYMBOL cap 352 224 R90
WINDOW 0 0 32 VBottom 2
WINDOW 3 32 32 VTop 2
SYMATTR InstName CS
SYMATTR Value .001
SYMBOL res 400 256 R0
SYMATTR InstName RS2
SYMATTR Value 270
SYMBOL res 528 128 R0
SYMATTR InstName RL
SYMATTR Value 33000
SYMBOL voltage -352 240 R0
WINDOW 123 24 124 Left 2
WINDOW 39 0 0 Left 2
SYMATTR Value2 AC 1
SYMATTR InstName IN
SYMATTR Value SINE(0 50m 1000)
SYMBOL cap -208 176 R90
WINDOW 0 0 32 VBottom 2
WINDOW 3 32 32 VTop 2
SYMATTR InstName C1
SYMATTR Value .0001
TEXT -656 264 Left 2 !.op
TEXT -656 296 Left 2 !.include bs170model.lib
TEXT -656 328 Left 2 !;tran 0 4m 0m 100u
TEXT -656 360 Left 2 !;ac dec 101 10 10meg
