Version 4
SHEET 1 880 680
SYMBOL nmos 160 96 R0
SYMATTR InstName M1
TEXT 432 8 Left 2 !.include bs170model.lib
